Circuit: * D:\Google Drive\Técnica1\Electrónica_Aplicada_7mo\Amplificador ClaseD\AmpliClase D\SIMULACION_DRIVER_POWER.asc

Limiting rise time of source v1 to 5e-007
Limiting fall time of source v1 to 5e-007
WARNING: Node N008 is floating.

Direct Newton iteration for .op point succeeded.
Changing Tseed to 1e-010

Date: Thu Sep 30 16:09:13 2021
Total elapsed time: 0.780 seconds.

tnom = 27
temp = 27
method = modified trap
totiter = 21530
traniter = 21487
tranpoints = 5734
accept = 4242
rejected = 1491
matrix size = 37
fillins = 34
solver = Normal
Matrix Compiler1: 4.35 KB object code size  1.4/0.8/[0.5]
Matrix Compiler2: off  [0.6]/1.0/1.0

