Circuit: * D:\Google Drive\Técnica1\Electrónica_Aplicada_7mo\Amplificador ClaseD\AmpliClase D\SIMULACION_DRIVER_POWER.asc

Limiting rise time of source v1 to 5e-007
Limiting fall time of source v1 to 5e-007
Direct Newton iteration failed to find .op point.  (Use ".option noopiter" to skip.)
Starting Gmin stepping
Gmin = 10
Gmin = 1.07374
Gmin = 0.115292
Gmin = 0.0123794
Gmin = 0.00132923
Gmin = 0.000142725
Gmin = 1.5325e-005
Gmin = 1.6455e-006
Gmin = 1.76685e-007
Gmin = 1.89714e-008
Gmin = 2.03704e-009
Gmin = 2.18725e-010
Gmin = 2.34854e-011
Gmin = 2.52173e-012
Gmin = 2.70769e-013
Gmin = 0
Gmin stepping succeeded in finding the operating point.

Heightened Def Con from 4.6e-005 to 4.6005e-005
Heightened Def Con from 6.60001e-005 to 6.60041e-005

Date: Sat Oct 02 07:10:17 2021
Total elapsed time: 1.660 seconds.

tnom = 27
temp = 27
method = modified trap
totiter = 198754
traniter = 198063
tranpoints = 53976
accept = 40076
rejected = 13902
matrix size = 37
fillins = 34
solver = Normal
Matrix Compiler1: 4.35 KB object code size  1.2/0.8/[0.4]
Matrix Compiler2: 3.67 KB object code size  0.5/0.5/[0.4]

